<?xml version='1.0' encoding='ISO-8859-1'?>
<febio_spec version="3.0">
    <Module type="solid" />
    <Material>
        <material id="1" name="Material 1" type="neo-Hookean">
            <density>1.0</density>
            <E>1000.0</E>
            <v>0.3</v>
        </material>
        <material id="2" name="Material 2" type="rigid body">
            <density>1.0</density>
            <center_of_mass>0,0,0</center_of_mass>
        </material>
    </Material>
    <Mesh>
        <Nodes>
            <node id="1">0.0,0.0,0.0</node>
            <node id="2">1.0,0.0,0.0</node>
            <node id="3">1.0,1.0,0.0</node>
            <node id="4">0.0,1.0,0.0</node>
            <node id="5">0.0,0.0,1.05</node>
            <node id="6">1.5,0.0,1.05</node>
            <node id="7">1.5,1.5,1.05</node>
            <node id="8">0.0,1.5,1.05</node>
            <node id="9">0.0,0.0,1.0</node>
            <node id="10">1.0,0.0,1.0</node>
            <node id="11">1.0,1.0,1.0</node>
            <node id="12">0.0,1.0,1.0</node>
            <node id="13">0.2499999999994109,0.0,0.0</node>
            <node id="14">0.4999999999986921,0.0,0.0</node>
            <node id="15">0.7499999999993406,0.0,0.0</node>
            <node id="16">1.0,0.2499999999994109,0.0</node>
            <node id="17">1.0,0.4999999999986921,0.0</node>
            <node id="18">1.0,0.7499999999993406,0.0</node>
            <node id="19">0.7500000000003471,1.0,0.0</node>
            <node id="20">0.5000000000020595,1.0,0.0</node>
<!-- ... 130 like lines cut -->
        </Nodes>
        <Elements type="quad4" name="contact">
            <elem id="1">7,30,70,31</elem>
            <elem id="2">30,29,71,70</elem>
            <elem id="3">29,28,72,71</elem>
            <elem id="4">28,6,27,72</elem>
            <elem id="5">31,70,73,32</elem>
            <elem id="6">70,71,74,73</elem>
            <elem id="7">71,72,75,74</elem>
            <elem id="8">72,27,26,75</elem>
            <elem id="9">32,73,76,33</elem>
            <elem id="10">73,74,77,76</elem>
            <elem id="11">74,75,78,77</elem>
            <elem id="12">75,26,25,78</elem>
            <elem id="13">33,76,34,8</elem>
            <elem id="14">76,77,35,34</elem>
            <elem id="15">77,78,36,35</elem>
            <elem id="16">78,25,5,36</elem>
        </Elements>
        <Elements type="hex8" name="Solid">
            <elem id="17">1,13,61,24,49,79,124,112</elem>
            <elem id="18">49,79,124,112,50,80,125,113</elem>
            <elem id="19">50,80,125,113,51,81,126,114</elem>
            <elem id="20">51,81,126,114,9,37,115,48</elem>
            <elem id="21">24,61,62,23,112,124,127,109</elem>
            <elem id="22">112,124,127,109,113,125,128,110</elem>
            <elem id="23">113,125,128,110,114,126,129,111</elem>
            <elem id="24">114,126,129,111,48,115,116,47</elem>
            <elem id="25">23,62,63,22,109,127,130,106</elem>
            <elem id="26">109,127,130,106,110,128,131,107</elem>
            <elem id="27">110,128,131,107,111,129,132,108</elem>
            <elem id="28">111,129,132,108,47,116,117,46</elem>
            <elem id="29">22,63,21,4,106,130,103,58</elem>
            <elem id="30">106,130,103,58,107,131,104,59</elem>
            <elem id="31">107,131,104,59,108,132,105,60</elem>
            <elem id="32">108,132,105,60,46,117,45,12</elem>
            <elem id="33">13,14,64,61,79,82,133,124</elem>
            <elem id="34">79,82,133,124,80,83,134,125</elem>
            <elem id="35">80,83,134,125,81,84,135,126</elem>
            <elem id="36">81,84,135,126,37,38,118,115</elem>
<!-- ... 44 like lines cut -->
        </Elements>
        <Surface name="xsym">
            <quad4 id="1">4,22,106,58</quad4>
            <quad4 id="2">58,106,107,59</quad4>
            <quad4 id="3">59,107,108,60</quad4>
            <quad4 id="4">60,108,46,12</quad4>
            <quad4 id="5">22,23,109,106</quad4>
            <quad4 id="6">106,109,110,107</quad4>
            <quad4 id="7">107,110,111,108</quad4>
            <quad4 id="8">108,111,47,46</quad4>
            <quad4 id="9">23,24,112,109</quad4>
            <quad4 id="10">109,112,113,110</quad4>
            <quad4 id="11">110,113,114,111</quad4>
            <quad4 id="12">111,114,48,47</quad4>
            <quad4 id="13">24,1,49,112</quad4>
            <quad4 id="14">112,49,50,113</quad4>
            <quad4 id="15">113,50,51,114</quad4>
            <quad4 id="16">114,51,9,48</quad4>
        </Surface>
        <Surface name="ysym">
            <quad4 id="1">1,13,79,49</quad4>
            <quad4 id="2">49,79,80,50</quad4>
            <quad4 id="3">50,80,81,51</quad4>
            <quad4 id="4">51,81,37,9</quad4>
            <quad4 id="5">13,14,82,79</quad4>
            <quad4 id="6">79,82,83,80</quad4>
            <quad4 id="7">80,83,84,81</quad4>
            <quad4 id="8">81,84,38,37</quad4>
            <quad4 id="9">14,15,85,82</quad4>
            <quad4 id="10">82,85,86,83</quad4>
            <quad4 id="11">83,86,87,84</quad4>
            <quad4 id="12">84,87,39,38</quad4>
            <quad4 id="13">15,2,52,85</quad4>
            <quad4 id="14">85,52,53,86</quad4>
            <quad4 id="15">86,53,54,87</quad4>
            <quad4 id="16">87,54,10,39</quad4>
        </Surface>
        <Surface name="zsym">
            <quad4 id="1">1,13,61,24</quad4>
            <quad4 id="2">24,61,62,23</quad4>
            <quad4 id="3">23,62,63,22</quad4>
            <quad4 id="4">22,63,21,4</quad4>
            <quad4 id="5">13,14,64,61</quad4>
            <quad4 id="6">61,64,65,62</quad4>
            <quad4 id="7">62,65,66,63</quad4>
            <quad4 id="8">63,66,20,21</quad4>
            <quad4 id="9">14,15,67,64</quad4>
            <quad4 id="10">64,67,68,65</quad4>
            <quad4 id="11">65,68,69,66</quad4>
            <quad4 id="12">66,69,19,20</quad4>
            <quad4 id="13">15,2,16,67</quad4>
            <quad4 id="14">67,16,17,68</quad4>
            <quad4 id="15">68,17,18,69</quad4>
            <quad4 id="16">69,18,3,19</quad4>
        </Surface>
        <Surface name="top">
            <quad4 id="1">9,37,115,48</quad4>
            <quad4 id="2">48,115,116,47</quad4>
            <quad4 id="3">47,116,117,46</quad4>
            <quad4 id="4">46,117,45,12</quad4>
            <quad4 id="5">37,38,118,115</quad4>
            <quad4 id="6">115,118,119,116</quad4>
            <quad4 id="7">116,119,120,117</quad4>
            <quad4 id="8">117,120,44,45</quad4>
            <quad4 id="9">38,39,121,118</quad4>
            <quad4 id="10">118,121,122,119</quad4>
            <quad4 id="11">119,122,123,120</quad4>
            <quad4 id="12">120,123,43,44</quad4>
            <quad4 id="13">39,10,40,121</quad4>
            <quad4 id="14">121,40,41,122</quad4>
            <quad4 id="15">122,41,42,123</quad4>
            <quad4 id="16">123,42,11,43</quad4>
        </Surface>
        <Surface name="contact">
            <quad4 id="1">7,30,70,31</quad4>
            <quad4 id="2">30,29,71,70</quad4>
            <quad4 id="3">29,28,72,71</quad4>
            <quad4 id="4">28,6,27,72</quad4>
            <quad4 id="5">31,70,73,32</quad4>
            <quad4 id="6">70,71,74,73</quad4>
            <quad4 id="7">71,72,75,74</quad4>
            <quad4 id="8">72,27,26,75</quad4>
            <quad4 id="9">32,73,76,33</quad4>
            <quad4 id="10">73,74,77,76</quad4>
            <quad4 id="11">74,75,78,77</quad4>
            <quad4 id="12">75,26,25,78</quad4>
            <quad4 id="13">33,76,34,8</quad4>
            <quad4 id="14">76,77,35,34</quad4>
            <quad4 id="15">77,78,36,35</quad4>
            <quad4 id="16">78,25,5,36</quad4>
        </Surface>
        <SurfacePair name="FacetOnFacetSliding1">
            <primary>top</primary>
            <secondary>contact</secondary>
        </SurfacePair>
    </Mesh>
    <MeshDomains>
        <SolidDomain name="Solid" mat="Material 1" />
        <ShellDomain name="contact" mat="Material 2">
            <shell_normal_nodal>1</shell_normal_nodal>
        </ShellDomain>
    </MeshDomains>
    <Output>
        <plotfile type="febio">
            <var type="displacement" />
            <var type="stress" />
            <var type="contact gap" />
            <var type="contact force" />
        </plotfile>
    </Output>
    <Boundary>
        <bc name="FixedDisplacement1" type="fix" node_set="@surface:zsym">
            <dofs>x,y,z</dofs>
        </bc>
    </Boundary>
    <Rigid>
        <rigid_constraint name="RigidConstraint1" type="fix">
            <rb>2</rb>
            <dofs>Rx,Ry,Ru,Rv,Rw</dofs>
        </rigid_constraint>
    </Rigid>
    <Contact />
    <Step>
        <step name="Displace">
            <Boundary />
            <Loads />
            <Rigid>
                <rigid_constraint name="RigidConstraint1" type="prescribe">
                    <rb>2</rb>
                    <dof>Rz</dof>
                    <value lc="1">-0.2</value>
                    <relative>0</relative>
                </rigid_constraint>
            </Rigid>
            <Contact>
                <contact type="sliding-facet-on-facet" name="FacetOnFacetSliding1" surface_pair="FacetOnFacetSliding1">
                    <laugon>0</laugon>
                    <tolerance>0.2</tolerance>
                    <penalty>1</penalty>
                    <two_pass>0</two_pass>
                    <auto_penalty>1</auto_penalty>
                    <fric_coeff>0</fric_coeff>
                    <fric_penalty>0</fric_penalty>
                    <search_tol>0.01</search_tol>
                    <minaug>0</minaug>
                    <maxaug>10</maxaug>
                    <gaptol>0</gaptol>
                    <seg_up>0</seg_up>
                    <update_penalty>1</update_penalty>
                    <search_radius>0</search_radius>
                </contact>
            </Contact>
            <Control>
                <analysis>STATIC</analysis>
                <time_steps>10</time_steps>
                <step_size>0.1</step_size>
                <solver>
                    <max_refs>15</max_refs>
                    <max_ups>10</max_ups>
                    <diverge_reform>1</diverge_reform>
                    <reform_each_time_step>1</reform_each_time_step>
                    <dtol>0.001</dtol>
                    <etol>0.01</etol>
                    <rtol>0</rtol>
                    <lstol>0.9</lstol>
                    <min_residual>1E-20</min_residual>
                    <qnmethod>BFGS</qnmethod>
                    <rhoi>0</rhoi>
                </solver>
                <time_stepper>
                    <dtmin>0.01</dtmin>
                    <dtmax>0.1</dtmax>
                    <max_retries>5</max_retries>
                    <opt_iter>10</opt_iter>
                </time_stepper>
            </Control>
        </step>
    </Step>
    <LoadData>
        <load_controller id="1" type="loadcurve">
            <interpolate>SMOOTH</interpolate>
            <points>
                <point>0,0</point>
                <point>1,1</point>
            </points>
        </load_controller>
    </LoadData>
</febio_spec>
