<?xml version='1.0' encoding='ISO-8859-1'?>
<febio_spec version="3.0">
    <Module type="solid" />
    <Material>
        <material id="1" name="Material 1" type="incomp neo-Hookean">
            <density>1.0</density>
            <G>30E-3</G>
            <k>30</k>
        </material>
    </Material>
    <Mesh>
        <Nodes>
            <node id="1">1.0,0.0,0.0</node>
            <node id="2">1.2,0.0,0.0</node>
            <node id="3">0.0,1.2,0.0</node>
            <node id="4">0.0,1.0,0.0</node>
            <node id="5">1.0,0.0,1.0</node>
            <node id="6">1.2,0.0,1.0</node>
            <node id="7">0.0,1.2,1.0</node>
            <node id="8">0.0,1.0,1.0</node>
            <node id="9">1.01052631578938,0.0,0.0</node>
            <node id="10">1.021052631578717,0.0,0.0</node>
            <node id="11">1.031578947368097,0.0,0.0</node>
            <node id="12">1.042105263157477,0.0,0.0</node>
            <node id="13">1.052631578946814,0.0,0.0</node>
            <node id="14">1.063157894736194,0.0,0.0</node>
            <node id="15">1.073684210525567,0.0,0.0</node>
            <node id="16">1.084210526314997,0.0,0.0</node>
            <node id="17">1.094736842104464,0.0,0.0</node>
            <node id="18">1.105263157893975,0.0,0.0</node>
            <node id="19">1.115789473683442,0.0,0.0</node>
            <node id="20">1.126315789472908,0.0,0.0</node>
<!-- ... 1980 like lines cut -->
        </Nodes>
        <Elements type="hex8" name="Solid">
            <elem id="1">1,9,165,80,153,489,1029,702</elem>
            <elem id="2">153,489,1029,702,154,490,1030,703</elem>
            <elem id="3">154,490,1030,703,155,491,1031,704</elem>
            <elem id="4">155,491,1031,704,5,81,705,152</elem>
            <elem id="5">80,165,166,79,702,1029,1032,699</elem>
            <elem id="6">702,1029,1032,699,703,1030,1033,700</elem>
            <elem id="7">703,1030,1033,700,704,1031,1034,701</elem>
            <elem id="8">704,1031,1034,701,152,705,706,151</elem>
            <elem id="9">79,166,167,78,699,1032,1035,696</elem>
            <elem id="10">699,1032,1035,696,700,1033,1036,697</elem>
            <elem id="11">700,1033,1036,697,701,1034,1037,698</elem>
            <elem id="12">701,1034,1037,698,151,706,707,150</elem>
            <elem id="13">78,167,168,77,696,1035,1038,693</elem>
            <elem id="14">696,1035,1038,693,697,1036,1039,694</elem>
            <elem id="15">697,1036,1039,694,698,1037,1040,695</elem>
            <elem id="16">698,1037,1040,695,150,707,708,149</elem>
            <elem id="17">77,168,169,76,693,1038,1041,690</elem>
            <elem id="18">693,1038,1041,690,694,1039,1042,691</elem>
            <elem id="19">694,1039,1042,691,695,1040,1043,692</elem>
            <elem id="20">695,1040,1043,692,149,708,709,148</elem>
<!-- ... 1424 like lines cut -->
        </Elements>
        <Surface name="xsym">
            <quad4 id="1">3,45,597,159</quad4>
            <quad4 id="2">159,597,598,160</quad4>
            <quad4 id="3">160,598,599,161</quad4>
            <quad4 id="4">161,599,117,7</quad4>
            <quad4 id="5">45,46,600,597</quad4>
            <quad4 id="6">597,600,601,598</quad4>
            <quad4 id="7">598,601,602,599</quad4>
            <quad4 id="8">599,602,118,117</quad4>
            <quad4 id="9">46,47,603,600</quad4>
            <quad4 id="10">600,603,604,601</quad4>
            <quad4 id="11">601,604,605,602</quad4>
            <quad4 id="12">602,605,119,118</quad4>
            <quad4 id="13">47,48,606,603</quad4>
            <quad4 id="14">603,606,607,604</quad4>
            <quad4 id="15">604,607,608,605</quad4>
            <quad4 id="16">605,608,120,119</quad4>
            <quad4 id="17">48,49,609,606</quad4>
            <quad4 id="18">606,609,610,607</quad4>
            <quad4 id="19">607,610,611,608</quad4>
            <quad4 id="20">608,611,121,120</quad4>
<!-- ... 56 like lines cut -->
        </Surface>
        <Surface name="ysym">
            <quad4 id="1">1,9,489,153</quad4>
            <quad4 id="2">153,489,490,154</quad4>
            <quad4 id="3">154,490,491,155</quad4>
            <quad4 id="4">155,491,81,5</quad4>
            <quad4 id="5">9,10,492,489</quad4>
            <quad4 id="6">489,492,493,490</quad4>
            <quad4 id="7">490,493,494,491</quad4>
            <quad4 id="8">491,494,82,81</quad4>
            <quad4 id="9">10,11,495,492</quad4>
            <quad4 id="10">492,495,496,493</quad4>
            <quad4 id="11">493,496,497,494</quad4>
            <quad4 id="12">494,497,83,82</quad4>
            <quad4 id="13">11,12,498,495</quad4>
            <quad4 id="14">495,498,499,496</quad4>
            <quad4 id="15">496,499,500,497</quad4>
            <quad4 id="16">497,500,84,83</quad4>
            <quad4 id="17">12,13,501,498</quad4>
            <quad4 id="18">498,501,502,499</quad4>
            <quad4 id="19">499,502,503,500</quad4>
            <quad4 id="20">500,503,85,84</quad4>
<!-- ... 56 like lines cut -->
        </Surface>
        <Surface name="zsym">
            <quad4 id="1">1,9,165,80</quad4>
            <quad4 id="2">80,165,166,79</quad4>
            <quad4 id="3">79,166,167,78</quad4>
            <quad4 id="4">78,167,168,77</quad4>
            <quad4 id="5">77,168,169,76</quad4>
            <quad4 id="6">76,169,170,75</quad4>
            <quad4 id="7">75,170,171,74</quad4>
            <quad4 id="8">74,171,172,73</quad4>
            <quad4 id="9">73,172,173,72</quad4>
            <quad4 id="10">72,173,174,71</quad4>
            <quad4 id="11">71,174,175,70</quad4>
            <quad4 id="12">70,175,176,69</quad4>
            <quad4 id="13">69,176,177,68</quad4>
            <quad4 id="14">68,177,178,67</quad4>
            <quad4 id="15">67,178,179,66</quad4>
            <quad4 id="16">66,179,180,65</quad4>
            <quad4 id="17">65,180,181,64</quad4>
            <quad4 id="18">64,181,182,63</quad4>
            <quad4 id="19">63,182,62,4</quad4>
            <quad4 id="20">9,10,183,165</quad4>
<!-- ... 341 like lines cut -->
        </Surface>
        <Surface name="pressure">
            <quad4 id="1">4,63,651,162</quad4>
            <quad4 id="2">162,651,652,163</quad4>
            <quad4 id="3">163,652,653,164</quad4>
            <quad4 id="4">164,653,135,8</quad4>
            <quad4 id="5">63,64,654,651</quad4>
            <quad4 id="6">651,654,655,652</quad4>
            <quad4 id="7">652,655,656,653</quad4>
            <quad4 id="8">653,656,136,135</quad4>
            <quad4 id="9">64,65,657,654</quad4>
            <quad4 id="10">654,657,658,655</quad4>
            <quad4 id="11">655,658,659,656</quad4>
            <quad4 id="12">656,659,137,136</quad4>
            <quad4 id="13">65,66,660,657</quad4>
            <quad4 id="14">657,660,661,658</quad4>
            <quad4 id="15">658,661,662,659</quad4>
            <quad4 id="16">659,662,138,137</quad4>
            <quad4 id="17">66,67,663,660</quad4>
            <quad4 id="18">660,663,664,661</quad4>
            <quad4 id="19">661,664,665,662</quad4>
            <quad4 id="20">662,665,139,138</quad4>
<!-- ... 56 like lines cut -->
        </Surface>
    </Mesh>
    <MeshDomains>
        <SolidDomain name="Solid" mat="Material 1" />
    </MeshDomains>
    <MeshData />
    <Output>
        <plotfile type="febio">
            <var type="displacement" />
            <var type="stress" />
            <var type="relative volume" />
        </plotfile>
    </Output>
    <Boundary>
        <bc name="FixedDisplacement1" type="fix" node_set="@surface:xsym">
            <dofs>x</dofs>
        </bc>
        <bc name="FixedDisplacement2" type="fix" node_set="@surface:ysym">
            <dofs>y</dofs>
        </bc>
        <bc name="FixedDisplacement3" type="fix" node_set="@surface:zsym">
            <dofs>z</dofs>
        </bc>
    </Boundary>
    <Rigid />
    <Contact />
    <Step>
        <step name="Pressure">
            <Boundary />
            <Loads>
                <surface_load type="pressure" name="PressureLoad1" surface="pressure">
                    <pressure lc="1">0.01</pressure>
                    <linear>0</linear>
                    <symmetric_stiffness>0</symmetric_stiffness>
                    <shell_bottom>0</shell_bottom>
                </surface_load>
            </Loads>
            <Rigid />
            <Contact />
            <Control>
                <analysis>STATIC</analysis>
                <time_steps>20</time_steps>
                <step_size>0.05</step_size>
                <solver>
                    <max_refs>15</max_refs>
                    <max_ups>10</max_ups>
                    <diverge_reform>1</diverge_reform>
                    <reform_each_time_step>1</reform_each_time_step>
                    <dtol>0.001</dtol>
                    <etol>0.01</etol>
                    <rtol>0</rtol>
                    <lstol>0.9</lstol>
                    <min_residual>1E-20</min_residual>
                    <qnmethod>BFGS</qnmethod>
                    <rhoi>0</rhoi>
                </solver>
                <time_stepper>
                    <dtmin>0.001</dtmin>
                    <dtmax>0.05</dtmax>
                    <max_retries>5</max_retries>
                    <opt_iter>10</opt_iter>
                </time_stepper>
            </Control>
        </step>
    </Step>
    <LoadData>
        <load_controller id="1" type="math">
            <math>1*t</math>
        </load_controller>
    </LoadData>
</febio_spec>
