<?xml version="1.0" encoding="ISO-8859-1"?>
<febio_spec version="4.0">
	<Module type="solid"/>
	<Control>
		<analysis>STATIC</analysis>
		<time_steps>10</time_steps>
		<step_size>0.1</step_size>
		<plot_zero_state>0</plot_zero_state>
		<plot_range>0,-1</plot_range>
		<plot_level>PLOT_MAJOR_ITRS</plot_level>
		<output_level>OUTPUT_MAJOR_ITRS</output_level>
		<plot_stride>1</plot_stride>
		<adaptor_re_solve>1</adaptor_re_solve>
		<time_stepper type="default">
			<max_retries>5</max_retries>
			<opt_iter>11</opt_iter>
			<dtmin>0</dtmin>
			<dtmax>0.1</dtmax>
			<aggressiveness>0</aggressiveness>
			<cutback>0.5</cutback>
			<dtforce>0</dtforce>
		</time_stepper>
		<solver type="solid">
			<symmetric_stiffness>symmetric</symmetric_stiffness>
			<equation_scheme>staggered</equation_scheme>
			<equation_order>default</equation_order>
			<optimize_bw>0</optimize_bw>
			<lstol>0.9</lstol>
			<lsmin>0.01</lsmin>
			<lsiter>5</lsiter>
			<max_refs>40</max_refs>
			<check_zero_diagonal>0</check_zero_diagonal>
			<zero_diagonal_tol>0</zero_diagonal_tol>
			<force_partition>0</force_partition>
			<reform_each_time_step>1</reform_each_time_step>
			<reform_augment>0</reform_augment>
			<diverge_reform>1</diverge_reform>
			<min_residual>1e-20</min_residual>
			<max_residual>0</max_residual>
			<dtol>0.001</dtol>
			<etol>0.01</etol>
			<rtol>0</rtol>
			<rhoi>-2</rhoi>
			<alpha>1</alpha>
			<beta>0.25</beta>
			<gamma>0.5</gamma>
			<logSolve>0</logSolve>
			<arc_length>0</arc_length>
			<arc_length_scale>0</arc_length_scale>
			<qn_method type="BFGS">
				<max_ups>0</max_ups>
				<max_buffer_size>0</max_buffer_size>
				<cycle_buffer>1</cycle_buffer>
				<cmax>100000</cmax>
			</qn_method>
		</solver>
	</Control>
	<Globals>
		<Constants>
			<T>0</T>
			<P>0</P>
			<R>8.31446</R>
			<Fc>96485.3</Fc>
		</Constants>
	</Globals>
	<Material>
		<material id="1" name="Material1" type="incomp neo-Hookean">
			<density>1</density>
			<k>30</k>
			<pressure_model>default</pressure_model>
			<G>0.03</G>
		</material>
		<material id="2" name="Material2" type="isotropic elastic">
			<density>1</density>
			<E>1000000</E>
			<v>0.3</v>
		</material>
	</Material>
	<Mesh>
		<Nodes name="Object1">
			<node id="1">-0.5,-0.5,0</node>
			<node id="2">0.5,-0.5,0</node>
			<node id="3">0.5,0.5,0</node>
			<node id="4">-0.5,0.5,0</node>
			<node id="5">-0.5,-0.5,1</node>
			<node id="6">0.5,-0.5,1</node>
			<node id="7">0.5,0.5,1</node>
			<node id="8">-0.5,0.5,1</node>
			<node id="9">-0.4,-0.5,0</node>
			<node id="10">-0.3,-0.5,0</node>
			<node id="11">-0.2,-0.5,0</node>
			<node id="12">-0.1,-0.5,0</node>
			<node id="13">0,-0.5,0</node>
			<node id="14">0.1,-0.5,0</node>
			<node id="15">0.2,-0.5,0</node>
			<node id="16">0.3,-0.5,0</node>
			<node id="17">0.4,-0.5,0</node>
			<node id="18">0.5,-0.5,0.1</node>
			<node id="19">0.5,-0.5,0.2</node>
			<node id="20">0.5,-0.5,0.3</node>
<!-- ... 1311 like lines cut -->
		</Nodes>
		<Nodes name="Object5">
			<node id="1332">0.5,-0.249413135,1.5228752</node>
			<node id="1333">0,-0.215173489,1.02404893</node>
			<node id="1334">-0.5,-0.249413135,1.5228752</node>
			<node id="1335">0,-0.28365278,2.02170147</node>
			<node id="1336">0.5,0.249413135,1.55711485</node>
			<node id="1337">0,0.28365278,1.05828858</node>
			<node id="1338">-0.5,0.249413135,1.55711485</node>
			<node id="1339">0,0.215173489,2.05594112</node>
			<node id="1340">0.497592363,-0.246057062,1.47398168</node>
			<node id="1341">0.49039264,-0.242733311,1.42555903</node>
			<node id="1342">0.478470168,-0.23947389,1.37807358</node>
			<node id="1343">0.461939766,-0.23631019,1.33198265</node>
			<node id="1344">0.440960632,-0.233272677,1.28773013</node>
			<node id="1345">0.415734806,-0.230390607,1.24574218</node>
			<node id="1346">0.386505227,-0.227691733,1.20642317</node>
			<node id="1347">0.353553391,-0.225202049,1.17015177</node>
			<node id="1348">0.317196642,-0.222945531,1.13727728</node>
			<node id="1349">0.277785117,-0.22094391,1.10811632</node>
			<node id="1350">0.235698368,-0.219216463,1.08294971</node>
			<node id="1351">0.191341716,-0.217779827,1.06201982</node>
<!-- ... 1068 like lines cut -->
		</Nodes>
		<Elements type="hex8" name="Part1">
			<elem id="1">1,9,513,107,44,117,603,368</elem>
			<elem id="2">9,10,514,513,117,118,604,603</elem>
			<elem id="3">10,11,515,514,118,119,605,604</elem>
			<elem id="4">11,12,516,515,119,120,606,605</elem>
			<elem id="5">12,13,517,516,120,121,607,606</elem>
			<elem id="6">13,14,518,517,121,122,608,607</elem>
			<elem id="7">14,15,519,518,122,123,609,608</elem>
			<elem id="8">15,16,520,519,123,124,610,609</elem>
			<elem id="9">16,17,521,520,124,125,611,610</elem>
			<elem id="10">17,2,45,521,125,18,198,611</elem>
			<elem id="11">107,513,504,106,368,603,612,367</elem>
			<elem id="12">513,514,505,504,603,604,613,612</elem>
			<elem id="13">514,515,506,505,604,605,614,613</elem>
			<elem id="14">515,516,507,506,605,606,615,614</elem>
			<elem id="15">516,517,508,507,606,607,616,615</elem>
			<elem id="16">517,518,509,508,607,608,617,616</elem>
			<elem id="17">518,519,510,509,608,609,618,617</elem>
			<elem id="18">519,520,511,510,609,610,619,618</elem>
			<elem id="19">520,521,512,511,610,611,620,619</elem>
			<elem id="20">521,45,46,512,611,198,199,620</elem>
<!-- ... 980 like lines cut -->
		</Elements>
		<Elements type="quad4" name="Part5">
			<elem id="1001">1332,1340,1520,1460</elem>
			<elem id="1002">1340,1341,1521,1520</elem>
			<elem id="1003">1341,1342,1522,1521</elem>
			<elem id="1004">1342,1343,1523,1522</elem>
			<elem id="1005">1343,1344,1524,1523</elem>
			<elem id="1006">1344,1345,1525,1524</elem>
			<elem id="1007">1345,1346,1526,1525</elem>
			<elem id="1008">1346,1347,1527,1526</elem>
			<elem id="1009">1347,1348,1528,1527</elem>
			<elem id="1010">1348,1349,1529,1528</elem>
			<elem id="1011">1349,1350,1530,1529</elem>
			<elem id="1012">1350,1351,1531,1530</elem>
			<elem id="1013">1351,1352,1532,1531</elem>
			<elem id="1014">1352,1353,1533,1532</elem>
			<elem id="1015">1353,1354,1534,1533</elem>
			<elem id="1016">1354,1333,1475,1534</elem>
			<elem id="1017">1460,1520,1535,1461</elem>
			<elem id="1018">1520,1521,1536,1535</elem>
			<elem id="1019">1521,1522,1537,1536</elem>
			<elem id="1020">1522,1523,1538,1537</elem>
<!-- ... 1004 like lines cut -->
		</Elements>
		<Edge name="PrescribedShellDisplacement2">
			<line2 id="1">1335,1505</line2>
			<line2 id="2">1505,1506</line2>
			<line2 id="3">1506,1507</line2>
			<line2 id="4">1507,1508</line2>
			<line2 id="5">1508,1509</line2>
			<line2 id="6">1509,1510</line2>
			<line2 id="7">1510,1511</line2>
			<line2 id="8">1511,1512</line2>
			<line2 id="9">1512,1513</line2>
			<line2 id="10">1513,1514</line2>
			<line2 id="11">1514,1515</line2>
			<line2 id="12">1515,1516</line2>
			<line2 id="13">1516,1517</line2>
			<line2 id="14">1517,1518</line2>
			<line2 id="15">1518,1519</line2>
			<line2 id="16">1519,1339</line2>
		</Edge>
		<Edge name="ZeroShellDisplacement3">
			<line2 id="1">1335,1505</line2>
			<line2 id="2">1505,1506</line2>
			<line2 id="3">1506,1507</line2>
			<line2 id="4">1507,1508</line2>
			<line2 id="5">1508,1509</line2>
			<line2 id="6">1509,1510</line2>
			<line2 id="7">1510,1511</line2>
			<line2 id="8">1511,1512</line2>
			<line2 id="9">1512,1513</line2>
			<line2 id="10">1513,1514</line2>
			<line2 id="11">1514,1515</line2>
			<line2 id="12">1515,1516</line2>
			<line2 id="13">1516,1517</line2>
			<line2 id="14">1517,1518</line2>
			<line2 id="15">1518,1519</line2>
			<line2 id="16">1519,1339</line2>
		</Edge>
		<Surface name="ZeroDisplacement1">
			<quad4 id="1">4,80,441,99</quad4>
			<quad4 id="2">80,79,442,441</quad4>
			<quad4 id="3">79,78,443,442</quad4>
			<quad4 id="4">78,77,444,443</quad4>
			<quad4 id="5">77,76,445,444</quad4>
			<quad4 id="6">76,75,446,445</quad4>
			<quad4 id="7">75,74,447,446</quad4>
			<quad4 id="8">74,73,448,447</quad4>
			<quad4 id="9">73,72,449,448</quad4>
			<quad4 id="10">72,3,53,449</quad4>
			<quad4 id="11">99,441,450,100</quad4>
			<quad4 id="12">441,442,451,450</quad4>
			<quad4 id="13">442,443,452,451</quad4>
			<quad4 id="14">443,444,453,452</quad4>
			<quad4 id="15">444,445,454,453</quad4>
			<quad4 id="16">445,446,455,454</quad4>
			<quad4 id="17">446,447,456,455</quad4>
			<quad4 id="18">447,448,457,456</quad4>
			<quad4 id="19">448,449,458,457</quad4>
			<quad4 id="20">449,53,52,458</quad4>
<!-- ... 80 like lines cut -->
		</Surface>
		<Surface name="SlidingFacetOnFacet2Primary">
			<quad4 id="1">1332,1340,1520,1460</quad4>
			<quad4 id="2">1340,1341,1521,1520</quad4>
			<quad4 id="3">1341,1342,1522,1521</quad4>
			<quad4 id="4">1342,1343,1523,1522</quad4>
			<quad4 id="5">1343,1344,1524,1523</quad4>
			<quad4 id="6">1344,1345,1525,1524</quad4>
			<quad4 id="7">1345,1346,1526,1525</quad4>
			<quad4 id="8">1346,1347,1527,1526</quad4>
			<quad4 id="9">1347,1348,1528,1527</quad4>
			<quad4 id="10">1348,1349,1529,1528</quad4>
			<quad4 id="11">1349,1350,1530,1529</quad4>
			<quad4 id="12">1350,1351,1531,1530</quad4>
			<quad4 id="13">1351,1352,1532,1531</quad4>
			<quad4 id="14">1352,1353,1533,1532</quad4>
			<quad4 id="15">1353,1354,1534,1533</quad4>
			<quad4 id="16">1354,1333,1475,1534</quad4>
			<quad4 id="17">1460,1520,1535,1461</quad4>
			<quad4 id="18">1520,1521,1536,1535</quad4>
			<quad4 id="19">1521,1522,1537,1536</quad4>
			<quad4 id="20">1522,1523,1538,1537</quad4>
<!-- ... 492 like lines cut -->
		</Surface>
		<Surface name="SlidingFacetOnFacet2Secondary">
			<quad4 id="1">5,35,522,108</quad4>
			<quad4 id="2">35,34,523,522</quad4>
			<quad4 id="3">34,33,524,523</quad4>
			<quad4 id="4">33,32,525,524</quad4>
			<quad4 id="5">32,31,526,525</quad4>
			<quad4 id="6">31,30,527,526</quad4>
			<quad4 id="7">30,29,528,527</quad4>
			<quad4 id="8">29,28,529,528</quad4>
			<quad4 id="9">28,27,530,529</quad4>
			<quad4 id="10">27,6,71,530</quad4>
			<quad4 id="11">108,522,531,109</quad4>
			<quad4 id="12">522,523,532,531</quad4>
			<quad4 id="13">523,524,533,532</quad4>
			<quad4 id="14">524,525,534,533</quad4>
			<quad4 id="15">525,526,535,534</quad4>
			<quad4 id="16">526,527,536,535</quad4>
			<quad4 id="17">527,528,537,536</quad4>
			<quad4 id="18">528,529,538,537</quad4>
			<quad4 id="19">529,530,539,538</quad4>
			<quad4 id="20">530,71,70,539</quad4>
<!-- ... 80 like lines cut -->
		</Surface>
		<Surface name="ZeroShellDisplacement3">
			<quad4 id="1">5,35,522,108</quad4>
			<quad4 id="2">35,34,523,522</quad4>
			<quad4 id="3">34,33,524,523</quad4>
			<quad4 id="4">33,32,525,524</quad4>
			<quad4 id="5">32,31,526,525</quad4>
			<quad4 id="6">31,30,527,526</quad4>
			<quad4 id="7">30,29,528,527</quad4>
			<quad4 id="8">29,28,529,528</quad4>
			<quad4 id="9">28,27,530,529</quad4>
			<quad4 id="10">27,6,71,530</quad4>
			<quad4 id="11">108,522,531,109</quad4>
			<quad4 id="12">522,523,532,531</quad4>
			<quad4 id="13">523,524,533,532</quad4>
			<quad4 id="14">524,525,534,533</quad4>
			<quad4 id="15">525,526,535,534</quad4>
			<quad4 id="16">526,527,536,535</quad4>
			<quad4 id="17">527,528,537,536</quad4>
			<quad4 id="18">528,529,538,537</quad4>
			<quad4 id="19">529,530,539,538</quad4>
			<quad4 id="20">530,71,70,539</quad4>
<!-- ... 80 like lines cut -->
		</Surface>
		<SurfacePair name="SlidingFacetOnFacet2">
			<primary>SlidingFacetOnFacet2Primary</primary>
			<secondary>SlidingFacetOnFacet2Secondary</secondary>
		</SurfacePair>
	</Mesh>
	<MeshDomains>
		<SolidDomain name="Part1" mat="Material1"/>
		<ShellDomain name="Part5" mat="Material2">
			<shell_thickness>0.01</shell_thickness>
		</ShellDomain>
	</MeshDomains>
	<Boundary>
		<bc name="ZeroDisplacement1" node_set="@surface:ZeroDisplacement1" type="zero displacement">
			<x_dof>1</x_dof>
			<y_dof>1</y_dof>
			<z_dof>1</z_dof>
		</bc>
		<bc name="PrescribedShellDisplacement2" node_set="@edge:PrescribedShellDisplacement2" type="prescribed shell displacement">
			<dof>sz</dof>
			<value lc="2">-1</value>
			<relative>0</relative>
		</bc>
		<bc name="ZeroShellDisplacement3" node_set="@edge:ZeroShellDisplacement3" type="zero shell displacement">
			<sx_dof>1</sx_dof>
			<sy_dof>1</sy_dof>
			<sz_dof>0</sz_dof>
		</bc>
	</Boundary>
	<Contact>
		<contact name="SlidingFacetOnFacet2" surface_pair="SlidingFacetOnFacet2" type="sliding-facet-on-facet">
			<laugon>PENALTY</laugon>
			<penalty>1</penalty>
			<auto_penalty>0</auto_penalty>
			<update_penalty>0</update_penalty>
			<tolerance>0.01</tolerance>
			<two_pass>0</two_pass>
			<gaptol>0</gaptol>
			<minaug>0</minaug>
			<maxaug>10</maxaug>
			<smooth_aug>0</smooth_aug>
			<search_tol>0.01</search_tol>
			<search_radius>0</search_radius>
			<seg_up>0</seg_up>
			<node_reloc>0</node_reloc>
			<knmult>1</knmult>
		</contact>
	</Contact>
	<LoadData>
		<load_controller id="1" name="LC1" type="loadcurve">
			<interpolate>LINEAR</interpolate>
			<extend>CONSTANT</extend>
			<points>
				<pt>0,0</pt>
				<pt>1,1</pt>
			</points>
		</load_controller>
		<load_controller id="2" name="LC2" type="loadcurve">
			<interpolate>LINEAR</interpolate>
			<extend>CONSTANT</extend>
			<points>
				<pt>0,0</pt>
				<pt>1,1</pt>
			</points>
		</load_controller>
	</LoadData>
	<Output>
		<plotfile type="febio">
			<var type="displacement"/>
			<var type="stress"/>
			<var type="relative volume"/>
			<var type="contact pressure"/>
			<var type="contact gap"/>
		</plotfile>
	</Output>
</febio_spec>
