<?xml version="1.0" encoding="ISO-8859-1"?>
<febio_spec version="3.0">
	<Module type="solid"/>
	<Globals>
		<Constants>
			<T>0</T>
			<R>0</R>
			<Fc>0</Fc>
		</Constants>
	</Globals>
	<Material>
		<material id="1" name="neoHooke" type="incomp neo-Hookean">
			<density>1</density>
			<G>0.05</G>
			<k>30</k>
		</material>
		<material id="2" name="rigidMat" type="rigid body">
			<density>1</density>
			<center_of_mass>0,0,1.5</center_of_mass>
		</material>
	</Material>
	<Mesh>
		<Nodes name="cylinder">
			<node id="1">-0.353553391,-0.353553391,0</node>
			<node id="2">0,-0.353553391,0</node>
			<node id="3">0.353553391,-0.353553391,0</node>
			<node id="4">-0.353553391,0,0</node>
			<node id="5">0,0,0</node>
			<node id="6">0.353553391,0,0</node>
			<node id="7">-0.353553391,0.353553391,0</node>
			<node id="8">0,0.353553391,0</node>
			<node id="9">0.353553391,0.353553391,0</node>
			<node id="10">-0.353553391,-0.353553391,1</node>
			<node id="11">0,-0.353553391,1</node>
			<node id="12">0.353553391,-0.353553391,1</node>
			<node id="13">-0.353553391,0,1</node>
			<node id="14">0,0,1</node>
			<node id="15">0.353553391,0,1</node>
			<node id="16">-0.353553391,0.353553391,1</node>
			<node id="17">0,0.353553391,1</node>
			<node id="18">0.353553391,0.353553391,1</node>
			<node id="19">-0.707106781,-0.707106781,0</node>
			<node id="20">0,-1,0</node>
<!-- ... 2869 like lines cut -->
		</Nodes>
		<Nodes name="plate">
			<node id="2890">-1.25,-1.25,1.14713854</node>
			<node id="2891">-1.25,-1.125,1.14713854</node>
			<node id="2892">-1.25,-1,1.14713854</node>
			<node id="2893">-1.25,-0.875,1.14713854</node>
			<node id="2894">-1.25,-0.75,1.14713854</node>
			<node id="2895">-1.25,-0.625,1.14713854</node>
			<node id="2896">-1.25,-0.5,1.14713854</node>
			<node id="2897">-1.25,-0.375,1.14713854</node>
			<node id="2898">-1.25,-0.25,1.14713854</node>
			<node id="2899">-1.25,-0.125,1.14713854</node>
			<node id="2900">-1.25,0,1.14713854</node>
			<node id="2901">-1.25,0.125,1.14713854</node>
			<node id="2902">-1.25,0.25,1.14713854</node>
			<node id="2903">-1.25,0.375,1.14713854</node>
			<node id="2904">-1.25,0.5,1.14713854</node>
			<node id="2905">-1.25,0.625,1.14713854</node>
			<node id="2906">-1.25,0.75,1.14713854</node>
			<node id="2907">-1.25,0.875,1.14713854</node>
			<node id="2908">-1.25,1,1.14713854</node>
			<node id="2909">-1.25,1.125,1.14713854</node>
<!-- ... 421 like lines cut -->
		</Nodes>
		<Elements type="hex8" name="Part1">
			<elem id="1">1,35,502,90,56,378,1546,465</elem>
			<elem id="2">35,36,503,502,378,379,1547,1546</elem>
			<elem id="3">36,37,504,503,379,380,1548,1547</elem>
			<elem id="4">37,38,505,504,380,381,1549,1548</elem>
			<elem id="5">38,2,57,505,381,39,406,1549</elem>
			<elem id="6">90,502,498,89,465,1546,1550,464</elem>
			<elem id="7">502,503,499,498,1546,1547,1551,1550</elem>
			<elem id="8">503,504,500,499,1547,1548,1552,1551</elem>
			<elem id="9">504,505,501,500,1548,1549,1553,1552</elem>
			<elem id="10">505,57,58,501,1549,406,407,1553</elem>
			<elem id="11">89,498,494,88,464,1550,1554,463</elem>
			<elem id="12">498,499,495,494,1550,1551,1555,1554</elem>
			<elem id="13">499,500,496,495,1551,1552,1556,1555</elem>
			<elem id="14">500,501,497,496,1552,1553,1557,1556</elem>
			<elem id="15">501,58,59,497,1553,407,408,1557</elem>
			<elem id="16">88,494,490,87,463,1554,1558,462</elem>
			<elem id="17">494,495,491,490,1554,1555,1559,1558</elem>
			<elem id="18">495,496,492,491,1555,1556,1560,1559</elem>
			<elem id="19">496,497,493,492,1556,1557,1561,1560</elem>
			<elem id="20">497,59,60,493,1557,408,409,1561</elem>
<!-- ... 2380 like lines cut -->
		</Elements>
		<Elements type="quad4" name="Part3">
			<elem id="2401">2891,2912,2911,2890</elem>
			<elem id="2402">2892,2913,2912,2891</elem>
			<elem id="2403">2893,2914,2913,2892</elem>
			<elem id="2404">2894,2915,2914,2893</elem>
			<elem id="2405">2895,2916,2915,2894</elem>
			<elem id="2406">2896,2917,2916,2895</elem>
			<elem id="2407">2897,2918,2917,2896</elem>
			<elem id="2408">2898,2919,2918,2897</elem>
			<elem id="2409">2899,2920,2919,2898</elem>
			<elem id="2410">2900,2921,2920,2899</elem>
			<elem id="2411">2901,2922,2921,2900</elem>
			<elem id="2412">2902,2923,2922,2901</elem>
			<elem id="2413">2903,2924,2923,2902</elem>
			<elem id="2414">2904,2925,2924,2903</elem>
			<elem id="2415">2905,2926,2925,2904</elem>
			<elem id="2416">2906,2927,2926,2905</elem>
			<elem id="2417">2907,2928,2927,2906</elem>
			<elem id="2418">2908,2929,2928,2907</elem>
			<elem id="2419">2909,2930,2929,2908</elem>
			<elem id="2420">2910,2931,2930,2909</elem>
<!-- ... 380 like lines cut -->
		</Elements>
		<Surface name="FixedDisplacement1">
			<quad4 id="1">4,75,490,87</quad4>
			<quad4 id="2">87,490,494,88</quad4>
			<quad4 id="3">88,494,498,89</quad4>
			<quad4 id="4">89,498,502,90</quad4>
			<quad4 id="5">90,502,35,1</quad4>
			<quad4 id="6">75,74,491,490</quad4>
			<quad4 id="7">490,491,495,494</quad4>
			<quad4 id="8">494,495,499,498</quad4>
			<quad4 id="9">498,499,503,502</quad4>
			<quad4 id="10">502,503,36,35</quad4>
			<quad4 id="11">74,73,492,491</quad4>
			<quad4 id="12">491,492,496,495</quad4>
			<quad4 id="13">495,496,500,499</quad4>
			<quad4 id="14">499,500,504,503</quad4>
			<quad4 id="15">503,504,37,36</quad4>
			<quad4 id="16">73,72,493,492</quad4>
			<quad4 id="17">492,493,497,496</quad4>
			<quad4 id="18">496,497,501,500</quad4>
			<quad4 id="19">500,501,505,504</quad4>
			<quad4 id="20">504,505,38,37</quad4>
<!-- ... 280 like lines cut -->
		</Surface>
		<Surface name="FacetOnFacetSliding1_primary">
			<quad4 id="1">2891,2912,2911,2890</quad4>
			<quad4 id="2">2892,2913,2912,2891</quad4>
			<quad4 id="3">2893,2914,2913,2892</quad4>
			<quad4 id="4">2894,2915,2914,2893</quad4>
			<quad4 id="5">2895,2916,2915,2894</quad4>
			<quad4 id="6">2896,2917,2916,2895</quad4>
			<quad4 id="7">2897,2918,2917,2896</quad4>
			<quad4 id="8">2898,2919,2918,2897</quad4>
			<quad4 id="9">2899,2920,2919,2898</quad4>
			<quad4 id="10">2900,2921,2920,2899</quad4>
			<quad4 id="11">2901,2922,2921,2900</quad4>
			<quad4 id="12">2902,2923,2922,2901</quad4>
			<quad4 id="13">2903,2924,2923,2902</quad4>
			<quad4 id="14">2904,2925,2924,2903</quad4>
			<quad4 id="15">2905,2926,2925,2904</quad4>
			<quad4 id="16">2906,2927,2926,2905</quad4>
			<quad4 id="17">2907,2928,2927,2906</quad4>
			<quad4 id="18">2908,2929,2928,2907</quad4>
			<quad4 id="19">2909,2930,2929,2908</quad4>
			<quad4 id="20">2910,2931,2930,2909</quad4>
<!-- ... 380 like lines cut -->
		</Surface>
		<Surface name="FacetOnFacetSliding1_secondary">
			<quad4 id="1">10,49,506,91</quad4>
			<quad4 id="2">91,506,510,92</quad4>
			<quad4 id="3">92,510,514,93</quad4>
			<quad4 id="4">93,514,518,94</quad4>
			<quad4 id="5">94,518,83,13</quad4>
			<quad4 id="6">49,48,507,506</quad4>
			<quad4 id="7">506,507,511,510</quad4>
			<quad4 id="8">510,511,515,514</quad4>
			<quad4 id="9">514,515,519,518</quad4>
			<quad4 id="10">518,519,84,83</quad4>
			<quad4 id="11">48,47,508,507</quad4>
			<quad4 id="12">507,508,512,511</quad4>
			<quad4 id="13">511,512,516,515</quad4>
			<quad4 id="14">515,516,520,519</quad4>
			<quad4 id="15">519,520,85,84</quad4>
			<quad4 id="16">47,46,509,508</quad4>
			<quad4 id="17">508,509,513,512</quad4>
			<quad4 id="18">512,513,517,516</quad4>
			<quad4 id="19">516,517,521,520</quad4>
			<quad4 id="20">520,521,86,85</quad4>
<!-- ... 280 like lines cut -->
		</Surface>
		<SurfacePair name="FacetOnFacetSliding1">
			<primary>FacetOnFacetSliding1_primary</primary>
			<secondary>FacetOnFacetSliding1_secondary</secondary>
		</SurfacePair>
	</Mesh>
	<MeshDomains>
		<SolidDomain name="Part1" mat="neoHooke"/>
		<ShellDomain name="Part3" mat="rigidMat">
			<shell_normal_nodal>1</shell_normal_nodal>
		</ShellDomain>
	</MeshDomains>
	<MeshData>
		<ElementData var="shell thickness" elem_set="Part3">
			<e lid="1">0,0,0,0</e>
			<e lid="2">0,0,0,0</e>
			<e lid="3">0,0,0,0</e>
			<e lid="4">0,0,0,0</e>
			<e lid="5">0,0,0,0</e>
			<e lid="6">0,0,0,0</e>
			<e lid="7">0,0,0,0</e>
			<e lid="8">0,0,0,0</e>
			<e lid="9">0,0,0,0</e>
			<e lid="10">0,0,0,0</e>
			<e lid="11">0,0,0,0</e>
			<e lid="12">0,0,0,0</e>
			<e lid="13">0,0,0,0</e>
			<e lid="14">0,0,0,0</e>
			<e lid="15">0,0,0,0</e>
			<e lid="16">0,0,0,0</e>
			<e lid="17">0,0,0,0</e>
			<e lid="18">0,0,0,0</e>
			<e lid="19">0,0,0,0</e>
			<e lid="20">0,0,0,0</e>
<!-- ... 380 like lines cut -->
		</ElementData>
	</MeshData>
	<Boundary>
		<bc name="FixedDisplacement1" type="fix" node_set="@surface:FixedDisplacement1">
			<dofs>x,y,z</dofs>
		</bc>
	</Boundary>
	<Rigid>
		<rigid_constraint name="RigidConstraint1" type="fix">
			<rb>2</rb>
			<dofs>Rx,Ry,Ru,Rv,Rw</dofs>
		</rigid_constraint>
		<rigid_constraint name="RigidConstraint2" type="prescribe">
			<rb>2</rb>
			<dof>Rz</dof>
			<value lc="1">-0.3</value>
			<relative>0</relative>
		</rigid_constraint>
	</Rigid>
	<Step>
		<step id="1" name="Step1">
			<Control>
				<analysis>STATIC</analysis>
				<time_steps>50</time_steps>
				<step_size>0.02</step_size>
				<solver>
					<max_refs>15</max_refs>
					<max_ups>10</max_ups>
					<diverge_reform>1</diverge_reform>
					<reform_each_time_step>1</reform_each_time_step>
					<dtol>0.001</dtol>
					<etol>0.01</etol>
					<rtol>0</rtol>
					<lstol>0.9</lstol>
					<min_residual>1e-20</min_residual>
					<qnmethod>BROYDEN</qnmethod>
					<rhoi>0</rhoi>
					<symmetric_stiffness>0</symmetric_stiffness>
				</solver>
				<time_stepper>
					<dtmin>0.002</dtmin>
					<dtmax>0.02</dtmax>
					<max_retries>5</max_retries>
					<opt_iter>10</opt_iter>
				</time_stepper>
			</Control>
			<Boundary>
			</Boundary>
			<Contact>
				<contact type="sliding-facet-on-facet" name="FacetOnFacetSliding1" surface_pair="FacetOnFacetSliding1">
					<laugon>1</laugon>
					<tolerance>0.01</tolerance>
					<penalty>1</penalty>
					<two_pass>1</two_pass>
					<auto_penalty>1</auto_penalty>
					<fric_coeff>0</fric_coeff>
					<fric_penalty>0</fric_penalty>
					<search_tol>0.01</search_tol>
					<minaug>0</minaug>
					<maxaug>25</maxaug>
					<gaptol>0</gaptol>
					<seg_up>0</seg_up>
					<update_penalty>0</update_penalty>
					<search_radius>0.3</search_radius>
				</contact>
			</Contact>
		</step>
	</Step>
	<LoadData>
		<load_controller id="1" type="loadcurve">
			<interpolate>SMOOTH</interpolate>
			<points>
				<point>0,0</point>
				<point>1,1</point>
			</points>
		</load_controller>
	</LoadData>
	<Output>
		<plotfile type="febio">
			<var type="contact force"/>
			<var type="contact gap"/>
			<var type="displacement"/>
			<var type="relative volume"/>
			<var type="stress"/>
		</plotfile>
	</Output>
</febio_spec>
